data_RuCO
_cell_length_a     9.335800
_cell_length_b    10.118300
_cell_length_c    22.069400
_cell_angle_alpha    90.000000
_cell_angle_beta     90.000000
_cell_angle_gamma   117.472900
loop_
_symmetry_equiv_pos_as_xyz
+x,+y,+z
loop_
_atom_site_type_symbol
_atom_site_label
_atom_site_fract_x
_atom_site_fract_y
_atom_site_fract_z
  Ru     Ru    0.0844593066749436    0.2709633299948418    0.3428228442284882
  Ru     Ru    0.0721518846960312    0.7613869992532922    0.3455252787925700
  Ru     Ru    0.5781248815626210    0.2606127706078506    0.3441043279136474
  Ru     Ru    0.5715634642381588    0.7596357479740631    0.3424978044706384
  Ru     Ru    0.3508493922265117    0.3113863559902726    0.3942242589124620
  Ru     Ru    0.3452755345037882    0.8076641974619825    0.3973105336260853
  Ru     Ru    0.8458735437007256    0.3035331088330706    0.3950706198044637
  Ru     Ru    0.8440540845470887    0.8053507633201461    0.3957466498640181
  Ru     Ru    0.1155480627236215    0.3477699928431866    0.4566008372414169
  Ru     Ru    0.1204970030092857    0.8519694258657887    0.4564360991515779
  Ru     Ru    0.6201201214691455    0.3509908591494910    0.4548846490946726
  Ru     Ru    0.6216316101446675    0.8520486318605187    0.4567138197287204
  Ru     Ru    0.3941715499757713    0.3988891537017386    0.5152744725166890
  Ru     Ru    0.3939007857825989    0.8983515174763421    0.5157556784364016
  Ru     Ru    0.8932837703008311    0.3985213684712812    0.5150566367958893
  Ru     Ru    0.8929472930104997    0.8989440445167707    0.5154029983524213
  Ru     Ru    0.1685668054761379    0.4411402105116921    0.5741972321605251
  Ru     Ru    0.1687966202922631    0.9452842715384538    0.5753400136896231
  Ru     Ru    0.6675353790647574    0.4414286423436113    0.5743541795070395
  Ru     Ru    0.6676887888431741    0.9432294986996552    0.5761047238429314
  Ru     Ru    0.4289480087162839    0.4891690264716435    0.6313822272898473
  Ru     Ru    0.4376039100274243    0.9930872032528966    0.6303247528816615
  Ru     Ru    0.9370196897692270    0.4858923093300381    0.6299078734691681
  Ru     Ru    0.9383765341599370    0.9885715102067620    0.6301528082651244
  Ru     Ru    0.1276181639461806    0.0334193145028540    0.3698443003887655
  Ru     Ru    0.1289910279739442    0.5361068153710995    0.3700900053798715
  Ru     Ru    0.6284209767934834    0.0289248306246668    0.3696726990940870
  Ru     Ru    0.6370622854321751    0.5328293637184689    0.3686222623439140
  Ru     Ru    0.3983232482602648    0.0787820831933875    0.4238881620906229
  Ru     Ru    0.3984874266719223    0.5805792187605473    0.4256494691105192
  Ru     Ru    0.8972264256078704    0.0767384067397074    0.4246522985910707
  Ru     Ru    0.8974531114473837    0.5808611511039747    0.4258035533292741
  Ru     Ru    0.1730834189662161    0.1230684068274989    0.4845919372660418
  Ru     Ru    0.1727431634275538    0.6234949438489917    0.4849413826551115
  Ru     Ru    0.6721289395614031    0.1236748458509383    0.4842383179289875
  Ru     Ru    0.6718524767098937    0.6231282292230149    0.4847238537473176
  Ru     Ru    0.4443950430518329    0.1699759852626881    0.5432857797192169
  Ru     Ru    0.4458916609321675    0.6710245728614083    0.5451159016698327
  Ru     Ru    0.9455233123771699    0.1700435065645397    0.5435605817302003
  Ru     Ru    0.9504680923904306    0.6742407895549540    0.5433987226681954
  Ru     Ru    0.2219729238827893    0.2166541517033936    0.6042496918384413
  Ru     Ru    0.2201415930724802    0.7184887152850690    0.6049202250704921
  Ru     Ru    0.7207483034780015    0.2143325917640036    0.6026866932995566
  Ru     Ru    0.7151572816146046    0.7106194212838931    0.6057679201664138
  Ru     Ru    0.4944871977817578    0.2623844199264700    0.6575092647986511
  Ru     Ru    0.4878590505733393    0.7613741021326670    0.6558961137375652
  Ru     Ru    0.9938677805236839    0.2605959513293191    0.6544729232734422
  Ru     Ru    0.9815696320824797    0.7510531388411296    0.6571786679778892
   C      C    0.7552195900942328    0.5488452003939669    0.6620888017632027
   C      C    0.3107936922703500    0.4731611882612618    0.3379325239314134
   O      O    0.6540849688356496    0.4671840546476207    0.7040531335811981
   O      O    0.4119660760459080    0.5549450502004712    0.2959370041155526

